examples/feeders/18_SE001_1/18_SE001_1_EXP_LOSSES.CSV
Element,  Total(W), Total(var),  I2R(W), I2X(var), No-load(W), No-load(var)
Line.15CF_13, 2.083921E-005, -0.07109551, 2.083921E-005, -0.07109551, 0, 0
Line.15CF_1400, 7.282246E-006, -0.2147707, 7.282246E-006, -0.2147707, 0, 0
Line.15CF_1949, 2.575811E-006, -0.2143386, 2.575811E-006, -0.2143386, 0, 0
Line.15CF_430, 0.0002330512, -0.07096894, 0.0002330512, -0.07096894, 0, 0
Line.15FR_1153, 0.000154431, -0.07161561, 0.000154431, -0.07161561, 0, 0
Line.17CF_1137, -3.50222E-006, -0.0704594, -3.50222E-006, -0.0704594, 0, 0
Line.17CF_1138, 2.277596E-005, -0.07118326, 2.277596E-005, -0.07118326, 0, 0
Line.17CF_1139, 1.603863E-005, -0.2139536, 1.603863E-005, -0.2139536, 0, 0
Line.17CF_1141, 4.74398E-005, -0.0717767, 4.74398E-005, -0.0717767, 0, 0
Line.17CF_1147, -1.91472E-005, -0.2175379, -1.91472E-005, -0.2175379, 0, 0
Line.17CF_1195, 9.82519E-006, -0.07242572, 9.82519E-006, -0.07242572, 0, 0
Line.17CF_1268, 1.526422E-005, -0.2082021, 1.526422E-005, -0.2082021, 0, 0
Line.17CF_1304, 1.927784E-005, -0.2118145, 1.927784E-005, -0.2118145, 0, 0
Line.17CF_1360, -8.999291E-008, -0.07093363, -8.999291E-008, -0.07093363, 0, 0
Line.17CF_1367, -5.297749E-005, -0.2138688, -5.297749E-005, -0.2138688, 0, 0
Line.17CF_1431, 5.301129E-005, -0.2076385, 5.301129E-005, -0.2076385, 0, 0
Line.17CF_1499, 0.0002362915, -0.2191453, 0.0002362915, -0.2191453, 0, 0
Line.17CF_1533, 1.269761E-005, -0.2085627, 1.269761E-005, -0.2085627, 0, 0
Line.17CF_1690, 7.806869E-005, -0.2150727, 7.806869E-005, -0.2150727, 0, 0
Line.17CF_1726, 3.025556E-005, -0.06985508, 3.025556E-005, -0.06985508, 0, 0
Line.17CF_187, 0.0002039507, -0.2085638, 0.0002039507, -0.2085638, 0, 0
Line.17CF_188, 7.075303E-006, -0.137637, 7.075303E-006, -0.137637, 0, 0
Line.17CF_440, 2.688212E-005, -0.06884943, 2.688212E-005, -0.06884943, 0, 0
Line.17CF_603, 9.950931E-005, -0.07100619, 9.950931E-005, -0.07100619, 0, 0
Line.17CF_604, 0.0002832361, -0.2166834, 0.0002832361, -0.2166834, 0, 0
Line.17CS_1752, 39.58634, 39.36517, 39.58634, 39.36517, 0, 0
Line.17CS_1770, 37.82886, 37.61737, 37.82886, 37.61737, 0, 0
Line.17CS_621, 37.83311, 37.6231, 37.83311, 37.6231, 0, 0
Line.17DJ_18, 1.564387E-005, -0.2212674, 1.564387E-005, -0.2212674, 0, 0
Line.17RL_1738, 37.88985, 37.67792, 37.88985, 37.67792, 0, 0
Line.17RL_5213, 1.641675E-005, -0.2212531, 1.641675E-005, -0.2212531, 0, 0
Line.18CF_1004, 0.0002109226, -0.07209232, 0.0002109226, -0.07209232, 0, 0
Line.18CF_1005, 2.131077E-005, -0.0722749, 2.131077E-005, -0.0722749, 0, 0
Line.18CF_1020, 6.6777E-005, -0.2173007, 6.6777E-005, -0.2173007, 0, 0
Line.18CF_1037, 0.0001010868, -0.2149438, 0.0001010868, -0.2149438, 0, 0
Line.18CF_104, 0.0003610106, -0.2039461, 0.0003610106, -0.2039461, 0, 0
Line.18CF_106, 0.000955482, -0.2003035, 0.000955482, -0.2003035, 0, 0
Line.18CF_1068, 1.422436E-006, -0.07050147, 1.422436E-006, -0.07050147, 0, 0
Line.18CF_108, 0.0009420198, -0.2022252, 0.0009420198, -0.2022252, 0, 0
Line.18CF_109, 0.0004292018, -0.06817507, 0.0004292018, -0.06817507, 0, 0
Line.18CF_1124, 1.05464E-005, -0.07026611, 1.05464E-005, -0.07026611, 0, 0
Line.18CF_1332, 0.01251492, -0.1990141, 0.01251492, -0.1990141, 0, 0
Line.18CF_1396, 0.000334314, -0.2125014, 0.000334314, -0.2125014, 0, 0
Line.18CF_1402, 0.0007875088, -0.2142246, 0.0007875088, -0.2142246, 0, 0
Line.18CF_1454, 0.001156638, -0.2138613, 0.001156638, -0.2138613, 0, 0
Line.18CF_1470, 1.129289E-005, -0.07159389, 1.129289E-005, -0.07159389, 0, 0
Line.18CF_1555, 1.500774E-005, -0.06863717, 1.500774E-005, -0.06863717, 0, 0
Line.18CF_175, 4.740112E-005, -0.2126853, 4.740112E-005, -0.2126853, 0, 0
Line.18CF_176, 2.899767E-005, -0.2138665, 2.899767E-005, -0.2138665, 0, 0
Line.18CF_1813, 1.749155E-005, -0.2123632, 1.749155E-005, -0.2123632, 0, 0
Line.18CF_1867, 1.341065E-005, -0.2131645, 1.341065E-005, -0.2131645, 0, 0
Line.18CF_1890, 3.445476E-005, -0.2144323, 3.445476E-005, -0.2144323, 0, 0
Line.18CF_1927, 0.000452966, -0.2106791, 0.000452966, -0.2106791, 0, 0
Line.18CF_34, -3.132409E-006, -0.06851367, -3.132409E-006, -0.06851367, 0, 0
Line.18CF_344, 0.0003279028, -0.2147264, 0.0003279028, -0.2147264, 0, 0
Line.18CF_386, -4.458744E-006, -0.07270745, -4.458744E-006, -0.07270745, 0, 0
Line.18CF_42, 0.0001863114, -0.07030969, 0.0001863114, -0.07030969, 0, 0
Line.18CF_630, 0.0002876531, -0.1379554, 0.0002876531, -0.1379554, 0, 0
Line.18CF_65, 0.003307147, -0.2113103, 0.003307147, -0.2113103, 0, 0
Line.18CF_650, 7.875694E-005, -0.06820873, 7.875694E-005, -0.06820873, 0, 0
Line.18CF_73, 8.880301E-005, -0.2110183, 8.880301E-005, -0.2110183, 0, 0
Line.18CF_76, 0.0002686021, -0.211058, 0.0002686021, -0.211058, 0, 0
Line.18CF_853, 3.775147E-005, -0.2167067, 3.775147E-005, -0.2167067, 0, 0
Line.18CF_86, 6.907571E-005, -0.2137574, 6.907571E-005, -0.2137574, 0, 0
Line.18CF_88, 8.515809E-005, -0.2106819, 8.515809E-005, -0.2106819, 0, 0
Line.18CF_917, -4.390982E-006, -0.07156782, -4.390982E-006, -0.07156782, 0, 0
Line.18CF_941, -6.703188E-006, -0.06865026, -6.703188E-006, -0.06865026, 0, 0
Line.18CF_954, -2.262137E-006, -0.2149731, -2.262137E-006, -0.2149731, 0, 0
Line.18CS_1074, 0.05067006, -0.1644036, 0.05067006, -0.1644036, 0, 0
Line.18CS_123, 0.01122673, -0.2086728, 0.01122673, -0.2086728, 0, 0
Line.18CS_611, 0.006988992, -0.2080777, 0.006988992, -0.2080777, 0, 0
Line.18CS_79, 0.002113994, -0.2086401, 0.002113994, -0.2086401, 0, 0
Line.18CS_852, 32.10505, 31.88861, 32.10505, 31.88861, 0, 0
Line.18CS_904, -2.180214E-005, -0.06860885, -2.180214E-005, -0.06860885, 0, 0
Line.18CS_940, 25.27151, 25.05731, 25.27151, 25.05731, 0, 0
Line.18FR_1095, 0.0003650493, -0.06998172, 0.0003650493, -0.06998172, 0, 0
Line.18FR_342, 0.004960084, -0.2100818, 0.004960084, -0.2100818, 0, 0
Line.18FR_71, 0.004154679, -0.2129485, 0.004154679, -0.2129485, 0, 0
Line.18FR_74, 0.00424902, -0.2068789, 0.00424902, -0.2068789, 0, 0
Line.18FR_75, 0.0124394, -0.1990221, 0.0124394, -0.1990221, 0, 0
Line.18FR_77, 0.02340571, -0.1875534, 0.02340571, -0.1875534, 0, 0
Line.18FR_78, 6.271874E-005, -0.07032135, 6.271874E-005, -0.07032135, 0, 0
Line.18FR_81, 0.001311339, -0.06903897, 0.001311339, -0.06903897, 0, 0
Line.18FS_110, 0.001909479, -0.06677875, 0.001909479, -0.06677875, 0, 0
Line.18FS_197, 0.0005257063, -0.07178151, 0.0005257063, -0.07178151, 0, 0
Line.18FS_198, 0.0007095585, -0.0716131, 0.0007095585, -0.0716131, 0, 0
Line.18RL_1577, 32.76341, 32.5457, 32.76341, 32.5457, 0, 0
Line.18RL_1578, 25.13485, 24.92157, 25.13485, 24.92157, 0, 0
Line.23CF_1022, 8.788413E-006, -0.2209425, 8.788413E-006, -0.2209425, 0, 0
Line.23CF_1089, 4.219352E-006, -0.07245738, 4.219352E-006, -0.07245738, 0, 0
Line.23CF_1099, 2.438732E-005, -0.2150036, 2.438732E-005, -0.2150036, 0, 0
Line.23CF_1134, 0.0004207378, -0.2204734, 0.0004207378, -0.2204734, 0, 0
Line.23CF_115, 0.0008449045, -0.2202944, 0.0008449045, -0.2202944, 0, 0
Line.23CF_1220, 1.093045E-005, -0.07168029, 1.093045E-005, -0.07168029, 0, 0
Line.23CF_1221, 0.002417954, -0.2179264, 0.002417954, -0.2179264, 0, 0
Line.23CF_1222, 0.5458922, 0.3300015, 0.5458922, 0.3300015, 0, 0
Line.23CF_1234, 0.128135, -0.08917825, 0.128135, -0.08917825, 0, 0
Line.23CF_1288, 2.155049E-005, -0.2136186, 2.155049E-005, -0.2136186, 0, 0
Line.23CF_1313, 3.08838E-005, -0.2204519, 3.08838E-005, -0.2204519, 0, 0
Line.23CF_135, 3.363019E-005, -0.223562, 3.363019E-005, -0.223562, 0, 0
Line.23CF_1398, 0.0001380059, -0.2235234, 0.0001380059, -0.2235234, 0, 0
Line.23CF_143, 8.437987E-006, -0.07500672, 8.437987E-006, -0.07500672, 0, 0
Line.23CF_1469, 7.052883E-005, -0.2201247, 7.052883E-005, -0.2201247, 0, 0
Line.23CF_1492, 2.934611E-005, -0.07497057, 2.934611E-005, -0.07497057, 0, 0
Line.23CF_1661, 2.398029E-005, -0.2206828, 2.398029E-005, -0.2206828, 0, 0
Line.23CF_167, 1.383516E-005, -0.07338577, 1.383516E-005, -0.07338577, 0, 0
Line.23CF_1802, 2.795395E-006, -0.2235287, 2.795395E-006, -0.2235287, 0, 0
Line.23CF_23, -1.10396E-005, -0.2193468, -1.10396E-005, -0.2193468, 0, 0
Line.23CF_25, -2.812778E-006, -0.2219108, -2.812778E-006, -0.2219108, 0, 0
Line.23CF_26, 8.836715E-006, -0.07458202, 8.836715E-006, -0.07458202, 0, 0
Line.23CF_27, 5.074772E-006, -0.07459547, 5.074772E-006, -0.07459547, 0, 0
Line.23CF_29, 0.0002798476, -0.2207112, 0.0002798476, -0.2207112, 0, 0
Line.23CF_31, -1.1486E-005, -0.2207397, -1.1486E-005, -0.2207397, 0, 0
Line.23CF_423, 1.340574E-005, -0.07384858, 1.340574E-005, -0.07384858, 0, 0
Line.23CF_426, 7.820643E-006, -0.2210487, 7.820643E-006, -0.2210487, 0, 0
Line.23CF_44, 0.0001575965, -0.2194688, 0.0001575965, -0.2194688, 0, 0
Line.23CF_47, 0.0003335557, -0.2206462, 0.0003335557, -0.2206462, 0, 0
Line.23CF_662, 2.077132E-005, -0.2206926, 2.077132E-005, -0.2206926, 0, 0
Line.23CF_704, 3.436726E-006, -0.2203242, 3.436726E-006, -0.2203242, 0, 0
Line.23CF_705, -6.17443E-006, -0.220243, -6.17443E-006, -0.220243, 0, 0
Line.23CF_715, 1.264324E-005, -0.2208492, 1.264324E-005, -0.2208492, 0, 0
Line.23CF_726, 4.20857E-006, -0.07334036, 4.20857E-006, -0.07334036, 0, 0
Line.23CF_727, 1.519865E-005, -0.07173413, 1.519865E-005, -0.07173413, 0, 0
Line.23CF_733, 1.168851E-005, -0.07336855, 1.168851E-005, -0.07336855, 0, 0
Line.23CF_734, -6.258275E-006, -0.07330032, -6.258275E-006, -0.07330032, 0, 0
Line.23CF_746, 0.0001627211, -0.2209385, 0.0001627211, -0.2209385, 0, 0
Line.23CF_747, 1.178868E-005, -0.07173014, 1.178868E-005, -0.07173014, 0, 0
Line.23CF_751, -8.912549E-006, -0.2235811, -8.912549E-006, -0.2235811, 0, 0
Line.23CF_820, 0.0001973941, -0.2208716, 0.0001973941, -0.2208716, 0, 0
Line.23CF_832, 4.829303E-006, -0.07314067, 4.829303E-006, -0.07314067, 0, 0
Line.23CF_844, 0.02699082, -0.1931753, 0.02699082, -0.1931753, 0, 0
Line.23CS_1118, 22.36127, 22.1511, 22.36127, 22.1511, 0, 0
Line.23CS_1157, 0.001070602, -0.2200306, 0.001070602, -0.2200306, 0, 0
Line.23CS_1376, 0.003715567, -0.2172226, 0.003715567, -0.2172226, 0, 0
Line.23CS_35, 0.03463318, -0.1854655, 0.03463318, -0.1854655, 0, 0
Line.23CS_41, 0.5355794, 0.3144391, 0.5355794, 0.3144391, 0, 0
Line.23CS_433, 8.134724, 7.911027, 8.134724, 7.911027, 0, 0
Line.23CS_89, 0.5158861, 0.2947228, 0.5158861, 0.2947228, 0, 0
Line.23FR_124, 0.00126946, -0.2222927, 0.00126946, -0.2222927, 0, 0
Line.23FR_138, 7.548117E-005, -0.07490094, 7.548117E-005, -0.07490094, 0, 0
Line.23FR_21, 0.4023664, 0.1829166, 0.4023664, 0.1829166, 0, 0
Line.23FR_22, 0.5637144, 0.3442321, 0.5637144, 0.3442321, 0, 0
Line.23FR_36, 1.253052E-005, -0.07498425, 1.253052E-005, -0.07498425, 0, 0
Line.23FR_39, 0.02508661, -0.1950196, 0.02508661, -0.1950196, 0, 0
Line.23FR_45, 0.001076545, -0.07241704, 0.001076545, -0.07241704, 0, 0
Line.23FR_50, 0.0004142966, -0.2199946, 0.0004142966, -0.2199946, 0, 0
Line.23FR_54, 0.2356871, 0.01574079, 0.2356871, 0.01574079, 0, 0
Line.23FR_80, 3.102577E-005, -0.07385279, 3.102577E-005, -0.07385279, 0, 0
Line.23RL_425, 0.1722493, -0.04846336, 0.1722493, -0.04846336, 0, 0
Line.23RL_655, 0.3851429, 0.164498, 0.3851429, 0.164498, 0, 0
Line.23RL_83, 8.389795, 8.168982, 8.389795, 8.168982, 0, 0
Line.29CF_11, 4.518399E-005, -0.07275114, 4.518399E-005, -0.07275114, 0, 0
Line.29CF_1278, 3.664455E-005, -0.2161665, 3.664455E-005, -0.2161665, 0, 0
Line.29CF_1336, 0.01465631, -0.2023676, 0.01465631, -0.2023676, 0, 0
Line.29CF_14, -2.191892E-006, -0.07254364, -2.191892E-006, -0.07254364, 0, 0
Line.29CF_1550, 0.2229096, 0.00769335, 0.2229096, 0.00769335, 0, 0
Line.29CF_1589, 0.2171044, 0.002676684, 0.2171044, 0.002676684, 0, 0
Line.29CF_169, 0.0006846423, -0.2145314, 0.0006846423, -0.2145314, 0, 0
Line.29CF_17, 0.2615312, 0.04359914, 0.2615312, 0.04359914, 0, 0
Line.29CF_19, 2.859239E-005, -0.07246969, 2.859239E-005, -0.07246969, 0, 0
Line.29CF_4, 2.730266E-006, -0.07197613, 2.730266E-006, -0.07197613, 0, 0
Line.29CF_776, 0.5526113, 0.335388, 0.5526113, 0.335388, 0, 0
Line.29CF_8, 4.785768E-005, -0.2161442, 4.785768E-005, -0.2161442, 0, 0
Line.29CF_939, 4.923202E-005, -0.2171463, 4.923202E-005, -0.2171463, 0, 0
Line.29CF_963, 1.752909E-005, -0.2180028, 1.752909E-005, -0.2180028, 0, 0
Line.29CO_1259, -5.628004E-005, -0.2172579, -5.628004E-005, -0.2172579, 0, 0
Line.29CS_1000, 2.092507, 1.874467, 2.092507, 1.874467, 0, 0
Line.29CS_6, 0.4795936, 0.2634944, 0.4795936, 0.2634944, 0, 0
Line.29CS_754, 0.03345501, -0.183754, 0.03345501, -0.183754, 0, 0
Line.29FR_10, 0.02823048, -0.1868256, 0.02823048, -0.1868256, 0, 0
Line.29FR_15, 0.03332176, -0.1840769, 0.03332176, -0.1840769, 0, 0
Line.29FR_20, 0.0009555409, -0.2159064, 0.0009555409, -0.2159064, 0, 0
Line.29FR_5, 0.5529509, 0.3361144, 0.5529509, 0.3361144, 0, 0
Line.29FR_7, 0.0001555521, -0.2160532, 0.0001555521, -0.2160532, 0, 0
Line.2CF_1287, 0.006952864, -0.2164342, 0.006952864, -0.2164342, 0, 0
Line.2CF_1432, 6.217652E-005, -0.2233189, 6.217652E-005, -0.2233189, 0, 0
Line.2CF_1433, -1.144145E-005, -0.07447177, -1.144145E-005, -0.07447177, 0, 0
Line.2CF_166, -3.130665E-005, -0.2234792, -3.130665E-005, -0.2234792, 0, 0
Line.2CF_1698, -1.677599E-005, -0.2233892, -1.677599E-005, -0.2233892, 0, 0
Line.2CF_1843, -3.383266E-005, -0.2233932, -3.383266E-005, -0.2233932, 0, 0
Line.2CF_38, -2.898791E-005, -0.2235475, -2.898791E-005, -0.2235475, 0, 0
Line.2CF_821, 4.827791E-006, -0.2235164, 4.827791E-006, -0.2235164, 0, 0
Line.2CF_967, 3.326656E-005, -0.2234138, 3.326656E-005, -0.2234138, 0, 0
Line.2CS_1156, 0.010967, -0.2124828, 0.010967, -0.2124828, 0, 0
Line.5CF_1057, 1.032725E-005, -0.07291253, 1.032725E-005, -0.07291253, 0, 0
Line.5CF_1060, -2.201044E-005, -0.07286041, -2.201044E-005, -0.07286041, 0, 0
Line.5CF_1083, 0.1289027, -0.08972858, 0.1289027, -0.08972858, 0, 0
Line.5CF_1131, -1.105549E-005, -0.2198818, -1.105549E-005, -0.2198818, 0, 0
Line.5CF_1132, 3.153188E-005, -0.2198383, 3.153188E-005, -0.2198383, 0, 0
Line.5CF_1210, 0.009928315, -0.2085952, 0.009928315, -0.2085952, 0, 0
Line.5CF_1255, -6.475862E-006, -0.07280398, -6.475862E-006, -0.07280398, 0, 0
Line.5CF_1373, -1.797853E-005, -0.07334446, -1.797853E-005, -0.07334446, 0, 0
Line.5CF_1421, 0.0003399791, -0.2181615, 0.0003399791, -0.2181615, 0, 0
Line.5CF_1689, 0.0003986279, -0.2194713, 0.0003986279, -0.2194713, 0, 0
Line.5CF_1778, 0.0003386904, -0.2195067, 0.0003386904, -0.2195067, 0, 0
Line.5CF_700, -1.921265E-007, -0.07318695, -1.921265E-007, -0.07318695, 0, 0
Line.5CF_743, 0.0005125495, -0.07240628, 0.0005125495, -0.07240628, 0, 0
Line.5CF_991, 0.0001077901, -0.2187255, 0.0001077901, -0.2187255, 0, 0
Line.5CS_1297, 0.0003190788, -0.2195292, 0.0003190788, -0.2195292, 0, 0
Line.5CS_1582, 0.004930412, -0.2149149, 0.004930412, -0.2149149, 0, 0
Line.5CS_64, 0.0157277, -0.2032199, 0.0157277, -0.2032199, 0, 0
Line.5CS_811, -1.02573E-005, -0.07292562, -1.02573E-005, -0.07292562, 0, 0
Line.5FR_171, 0.004939703, -0.2148921, 0.004939703, -0.2148921, 0, 0
Line.5FR_56, 7.703013E-005, -0.07307546, 7.703013E-005, -0.07307546, 0, 0
Line.5FS_57, 0.002113004, -0.07085742, 0.002113004, -0.07085742, 0, 0
Line.SMT_10030, 0.0006257596, -0.6497883, 0.0006257596, -0.6497883, 0, 0
Line.SMT_10049, 0.0004244821, -77.80405, 0.0004244821, -77.80405, 0, 0
Line.SMT_1013, 0.0399792, -76.93871, 0.0399792, -76.93871, 0, 0
Line.SMT_10132, 6.254993E-005, -18.87265, 6.254993E-005, -18.87265, 0, 0
Line.SMT_10134, 0.0001270815, -39.06595, 0.0001270815, -39.06595, 0, 0
Line.SMT_10154, 2.461498E-005, -42.74057, 2.461498E-005, -42.74057, 0, 0
Line.SMT_10157, 4.392885E-006, -9.778908, 4.392885E-006, -9.778908, 0, 0
Line.SMT_1018, 0.0008739831, -23.15982, 0.0008739831, -23.15982, 0, 0
Line.SMT_10214, 1.500853, -53.76399, 1.500853, -53.76399, 0, 0
Line.SMT_10248, 5.613417E-006, -27.09271, 5.613417E-006, -27.09271, 0, 0
Line.SMT_1029, 2.635358E-005, -1.998916, 2.635358E-005, -1.998916, 0, 0
Line.SMT_10349, 0.004188351, -66.06188, 0.004188351, -66.06188, 0, 0
Line.SMT_10406, 0.008495984, -1.974026, 0.008495984, -1.974026, 0, 0
Line.SMT_10493, 0.00416656, -65.65678, 0.00416656, -65.65678, 0, 0
Line.SMT_10512, 0.008174861, -1.036328, 0.008174861, -1.036328, 0, 0
Line.SMT_10594, 0.0001894037, -57.56666, 0.0001894037, -57.56666, 0, 0
Line.SMT_10611, 0.000184108, -52.21627, 0.000184108, -52.21627, 0, 0
Line.SMT_10635, 3.716494, -56.28023, 3.716494, -56.28023, 0, 0
Line.SMT_10637, 16.5266, -49.55782, 16.5266, -49.55782, 0, 0
Line.SMT_10638, 19.0267, -57.07122, 19.0267, -57.07122, 0, 0
Line.SMT_10642, 17.62524, -52.83767, 17.62524, -52.83767, 0, 0
Line.SMT_10643, 0.001952956, -68.07298, 0.001952956, -68.07298, 0, 0
Line.SMT_10686, 1.662203E-006, -0.5703744, 1.662203E-006, -0.5703744, 0, 0
Line.SMT_10696, 1.266247, -69.95555, 1.266247, -69.95555, 0, 0
Line.SMT_10698, 1.219125, -67.29833, 1.219125, -67.29833, 0, 0
Line.SMT_10722, 0.0008598566, -55.17774, 0.0008598566, -55.17774, 0, 0
Line.SMT_1074, 1.335156, -21.68172, 1.335156, -21.68172, 0, 0
Line.SMT_1075, 4.71078E-006, -5.808443, 4.71078E-006, -5.808443, 0, 0
Line.SMT_10759, 41.29618, -50.85526, 41.29618, -50.85526, 0, 0
Line.SMT_10804, 1.375105, -76.03147, 1.375105, -76.03147, 0, 0
Line.SMT_10819, 2.060395E-005, -3.471951, 2.060395E-005, -3.471951, 0, 0
Line.SMT_10877, 0.000687946, -42.48213, 0.000687946, -42.48213, 0, 0
Line.SMT_10909, 0.0004794481, -20.74786, 0.0004794481, -20.74786, 0, 0
Line.SMT_10910, 0.0004264368, -18.14856, 0.0004264368, -18.14856, 0, 0
Line.SMT_10912, 0.0005958537, -26.66464, 0.0005958537, -26.66464, 0, 0
Line.SMT_10915, 0.0004355662, -19.80275, 0.0004355662, -19.80275, 0, 0
Line.SMT_10916, 0.0004871497, -21.41971, 0.0004871497, -21.41971, 0, 0
Line.SMT_10917, 0.1911431, -76.64312, 0.1911431, -76.64312, 0, 0
Line.SMT_10918, 0.6383689, -54.59075, 0.6383689, -54.59075, 0, 0
Line.SMT_10928, 3.583144, -54.27017, 3.583144, -54.27017, 0, 0
Line.SMT_10987, 0.006495304, -17.82071, 0.006495304, -17.82071, 0, 0
Line.SMT_11031, 0.985606, -4.976976, 0.985606, -4.976976, 0, 0
Line.SMT_11051, -5.34064E-006, -0.5876895, -5.34064E-006, -0.5876895, 0, 0
Line.SMT_11063, 0.0009018865, -37.63906, 0.0009018865, -37.63906, 0, 0
Line.SMT_1112, 0.002555055, -36.07689, 0.002555055, -36.07689, 0, 0
Line.SMT_11122, 0.3442973, -63.40763, 0.3442973, -63.40763, 0, 0
Line.SMT_1113, 0.003556005, -49.84478, 0.003556005, -49.84478, 0, 0
Line.SMT_1114, 0.00495645, -68.81912, 0.00495645, -68.81912, 0, 0
Line.SMT_11145, 0.002528682, -57.52499, 0.002528682, -57.52499, 0, 0
Line.SMT_11152, 0.0008082325, -38.77015, 0.0008082325, -38.77015, 0, 0
Line.SMT_1119, 0.0008118544, -22.06427, 0.0008118544, -22.06427, 0, 0
Line.SMT_1120, 0.0007965964, -21.38866, 0.0007965964, -21.38866, 0, 0
Line.SMT_11201, 0.0004716046, -41.0779, 0.0004716046, -41.0779, 0, 0
Line.SMT_11211, 0.0006106682, -40.34709, 0.0006106682, -40.34709, 0, 0
Line.SMT_11216, 4.227065, -63.45392, 4.227065, -63.45392, 0, 0
Line.SMT_11218, 0.2867254, -56.71424, 0.2867254, -56.71424, 0, 0
Line.SMT_11251, 0.0001097672, -30.64893, 0.0001097672, -30.64893, 0, 0
Line.SMT_11293, 1.59315E-006, -66.24977, 1.59315E-006, -66.24977, 0, 0
Line.SMT_11294, 3.924139E-006, -67.13596, 3.924139E-006, -67.13596, 0, 0
Line.SMT_11295, 1.082555E-005, -67.13594, 1.082555E-005, -67.13594, 0, 0
Line.SMT_11306, 2.401514E-005, -89.84129, 2.401514E-005, -89.84129, 0, 0
Line.SMT_11313, 66.83719, 78.27036, 66.83719, 78.27036, 0, 0
Line.SMT_11330, 1.182148, -65.32699, 1.182148, -65.32699, 0, 0
Line.SMT_11334, 0.003744868, -71.74712, 0.003744868, -71.74712, 0, 0
Line.SMT_11362, 0.3471848, -65.15067, 0.3471848, -65.15067, 0, 0
Line.SMT_11376, 3.904007E-005, -2.042974, 3.904007E-005, -2.042974, 0, 0
Line.SMT_11389, 1.995741, -62.67528, 1.995741, -62.67528, 0, 0
Line.SMT_11396, 7.059844, -77.18595, 7.059844, -77.18595, 0, 0
Line.SMT_11402, 8.38056, -91.60145, 8.38056, -91.60145, 0, 0
Line.SMT_11403, 6.792815, -74.28393, 6.792815, -74.28393, 0, 0
Line.SMT_11404, 0.005208391, -70.24348, 0.005208391, -70.24348, 0, 0
Line.SMT_11405, 7.156454, -75.8012, 7.156454, -75.8012, 0, 0
Line.SMT_11431, 1.794949E-005, -3.454747, 1.794949E-005, -3.454747, 0, 0
Line.SMT_11432, 0.0001587381, -68.6806, 0.0001587381, -68.6806, 0, 0
Line.SMT_11435, 0.001007693, -43.07055, 0.001007693, -43.07055, 0, 0
Line.SMT_11436, 0.001051945, -43.77372, 0.001051945, -43.77372, 0, 0
Line.SMT_11439, 0.0006453338, -26.19611, 0.0006453338, -26.19611, 0, 0
Line.SMT_11455, 3.307903E-007, -65.51184, 3.307903E-007, -65.51184, 0, 0
Line.SMT_11477, 3.606744, -73.45055, 3.606744, -73.45055, 0, 0
Line.SMT_11478, 0.00235838, -13.56645, 0.00235838, -13.56645, 0, 0
Line.SMT_11481, 0.7442082, -63.55906, 0.7442082, -63.55906, 0, 0
Line.SMT_11483, 0.009258573, -22.63789, 0.009258573, -22.63789, 0, 0
Line.SMT_11488, 1.817493E-005, -31.20466, 1.817493E-005, -31.20466, 0, 0
Line.SMT_11489, 10.54001, -38.44475, 10.54001, -38.44475, 0, 0
Line.SMT_11492, 0.02819008, -27.70618, 0.02819008, -27.70618, 0, 0
Line.SMT_11498, 0.08699248, -96.85312, 0.08699248, -96.85312, 0, 0
Line.SMT_11499, 0.003778954, -41.12907, 0.003778954, -41.12907, 0, 0
Line.SMT_11507, 0.001457254, -51.4755, 0.001457254, -51.4755, 0, 0
Line.SMT_11521, 14.10294, -156.349, 14.10294, -156.349, 0, 0
Line.SMT_11531, 0.6285413, -53.54864, 0.6285413, -53.54864, 0, 0
Line.SMT_11547, 5.187975, -16.94004, 5.187975, -16.94004, 0, 0
Line.SMT_11549, 0.0002328498, -32.97216, 0.0002328498, -32.97216, 0, 0
Line.SMT_11555, 0.8734866, -74.53938, 0.8734866, -74.53938, 0, 0
Line.SMT_11557, 0.01142562, -28.24519, 0.01142562, -28.24519, 0, 0
Line.SMT_11558, 0.002699344, -12.45573, 0.002699344, -12.45573, 0, 0
Line.SMT_11562, 9.096396, -33.18455, 9.096396, -33.18455, 0, 0
Line.SMT_11563, 0.187341, -68.00592, 0.187341, -68.00592, 0, 0
Line.SMT_11565, 0.9204023, -87.91795, 0.9204023, -87.91795, 0, 0
Line.SMT_11571, 0.004931182, -1.988647, 0.004931182, -1.988647, 0, 0
Line.SMT_11573, 0.3390973, -86.90241, 0.3390973, -86.90241, 0, 0
Line.SMT_11582, 0.0220345, -21.37897, 0.0220345, -21.37897, 0, 0
Line.SMT_11588, -1.932115E-006, -21.93395, -1.932115E-006, -21.93395, 0, 0
Line.SMT_11616, 3.969645, -58.04409, 3.969645, -58.04409, 0, 0
Line.SMT_11617, 5.502148, -60.88321, 5.502148, -60.88321, 0, 0
Line.SMT_11619, 5.350375, -59.21502, 5.350375, -59.21502, 0, 0
Line.SMT_11620, 5.249343, -58.13334, 5.249343, -58.13334, 0, 0
Line.SMT_11636, 0.008614955, -25.18011, 0.008614955, -25.18011, 0, 0
Line.SMT_11637, 0.9079614, -77.51399, 0.9079614, -77.51399, 0, 0
Line.SMT_11655, 0.04993649, -122.8167, 0.04993649, -122.8167, 0, 0
Line.SMT_11657, 0.00243143, -13.92286, 0.00243143, -13.92286, 0, 0
Line.SMT_11661, 0.007235611, -17.66007, 0.007235611, -17.66007, 0, 0
Line.SMT_11664, 0.5918817, -50.62998, 0.5918817, -50.62998, 0, 0
Line.SMT_11665, 12.2994, -44.85368, 12.2994, -44.85368, 0, 0
Line.SMT_11668, 0.08589166, -95.40441, 0.08589166, -95.40441, 0, 0
Line.SMT_11669, 9.182512, -33.48101, 9.182512, -33.48101, 0, 0
Line.SMT_11673, 0.02210148, -32.94889, 0.02210148, -32.94889, 0, 0
Line.SMT_11680, 1.144241, -103.3242, 1.144241, -103.3242, 0, 0
Line.SMT_11681, 0.01027796, -72.29066, 0.01027796, -72.29066, 0, 0
Line.SMT_11705, 0.616205, -52.5134, 0.616205, -52.5134, 0, 0
Line.SMT_11708, 2.470228, -50.26712, 2.470228, -50.26712, 0, 0
Line.SMT_11729, 0.8595076, -73.27357, 0.8595076, -73.27357, 0, 0
Line.SMT_11731, 0.008567737, -20.87405, 0.008567737, -20.87405, 0, 0
Line.SMT_11732, 6.490289, -71.91438, 6.490289, -71.91438, 0, 0
Line.SMT_11734, 0.8518928, -81.41561, 0.8518928, -81.41561, 0, 0
Line.SMT_11735, 0.005348441, -54.71351, 0.005348441, -54.71351, 0, 0
Line.SMT_11736, 0.003312263, -33.15219, 0.003312263, -33.15219, 0, 0
Line.SMT_11737, 0.0002486145, -50.19266, 0.0002486145, -50.19266, 0, 0
Line.SMT_11738, 0.03694474, -41.2681, 0.03694474, -41.2681, 0, 0
Line.SMT_11743, 0.208013, -75.41911, 0.208013, -75.41911, 0, 0
Line.SMT_11744, 0.03178493, -35.44354, 0.03178493, -35.44354, 0, 0
Line.SMT_11753, 0.002455563, -79.22673, 0.002455563, -79.22673, 0, 0
Line.SMT_11755, 1.256354, -69.23839, 1.256354, -69.23839, 0, 0
Line.SMT_11764, 0.004527062, -0.7048175, 0.004527062, -0.7048175, 0, 0
Line.SMT_11765, 23.81355, -76.70045, 23.81355, -76.70045, 0, 0
Line.SMT_11768, 1.148639E-005, -39.54019, 1.148639E-005, -39.54019, 0, 0
Line.SMT_11769, 0.751942, -67.86663, 0.751942, -67.86663, 0, 0
Line.SMT_11770, 6.204114E-006, -25.65001, 6.204114E-006, -25.65001, 0, 0
Line.SMT_11771, 1.531341, -87.65649, 1.531341, -87.65649, 0, 0
Line.SMT_11772, 1.481799, -81.49715, 1.481799, -81.49715, 0, 0
Line.SMT_11775, 195.6475, 183.815, 195.6475, 183.815, 0, 0
Line.SMT_11777, 270.909, 254.4576, 270.909, 254.4576, 0, 0
Line.SMT_11778, 321.1101, 301.5764, 321.1101, 301.5764, 0, 0
Line.SMT_11779, 236.5931, 222.1773, 236.5931, 222.1773, 0, 0
Line.SMT_1178, 4.230457, -72.28506, 4.230457, -72.28506, 0, 0
Line.SMT_11780, 371.3533, 348.6865, 371.3533, 348.6865, 0, 0
Line.SMT_11781, 326.2585, 306.3037, 326.2585, 306.3037, 0, 0
Line.SMT_11782, 0.03068871, -45.63954, 0.03068871, -45.63954, 0, 0
Line.SMT_11783, 7.919362, -25.86379, 7.919362, -25.86379, 0, 0
Line.SMT_11789, 1.542247, -88.31278, 1.542247, -88.31278, 0, 0
Line.SMT_11790, 0.001941377, -13.90748, 0.001941377, -13.90748, 0, 0
Line.SMT_11793, 0.427369, -67.5157, 0.427369, -67.5157, 0, 0
Line.SMT_11794, 7.268326, -18.91166, 7.268326, -18.91166, 0, 0
Line.SMT_11796, 13.52057, -50.51291, 13.52057, -50.51291, 0, 0
Line.SMT_11799, 0.2152931, -76.93387, 0.2152931, -76.93387, 0, 0
Line.SMT_11803, 923.9226, 1300.915, 923.9226, 1300.915, 0, 0
Line.SMT_11810, 0.004980592, -35.24098, 0.004980592, -35.24098, 0, 0
Line.SMT_11811, 0.8855766, -72.9363, 0.8855766, -72.9363, 0, 0
Line.SMT_11815, 9.209702, -25.31013, 9.209702, -25.31013, 0, 0
Line.SMT_11816, 0.002571409, -18.38084, 0.002571409, -18.38084, 0, 0
Line.SMT_11819, 0.07693192, -18.07946, 0.07693192, -18.07946, 0, 0
Line.SMT_11821, 0.001334046, -51.3659, 0.001334046, -51.3659, 0, 0
Line.SMT_11824, 41.42291, -42.93728, 41.42291, -42.93728, 0, 0
Line.SMT_11825, 42.86455, -44.39665, 42.86455, -44.39665, 0, 0
Line.SMT_11826, 43.70675, -45.25019, 43.70675, -45.25019, 0, 0
Line.SMT_11828, 0.001562784, -51.88248, 0.001562784, -51.88248, 0, 0
Line.SMT_11829, 0.0007691849, -26.77157, 0.0007691849, -26.77157, 0, 0
Line.SMT_1183, 3.66532, -62.55314, 3.66532, -62.55314, 0, 0
Line.SMT_11832, 16.46756, -52.35677, 16.46756, -52.35677, 0, 0
Line.SMT_11833, 0.7158886, -68.44868, 0.7158886, -68.44868, 0, 0
Line.SMT_11835, 0.005546716, -10.33388, 0.005546716, -10.33388, 0, 0
Line.SMT_11836, 5.509955, -23.01056, 5.509955, -23.01056, 0, 0
Line.SMT_11837, 11.78108, -37.84181, 11.78108, -37.84181, 0, 0
Line.SMT_1184, 4.728242, -80.65626, 4.728242, -80.65626, 0, 0
Line.SMT_11840, -9.045978E-007, -20.25381, -9.045978E-007, -20.25381, 0, 0
Line.SMT_11841, 0.001314002, -2.486151, 0.001314002, -2.486151, 0, 0
Line.SMT_11846, 16.88087, -54.24947, 16.88087, -54.24947, 0, 0
Line.SMT_11847, 0.02889898, -42.38671, 0.02889898, -42.38671, 0, 0
Line.SMT_11849, 0.09352687, -51.56709, 0.09352687, -51.56709, 0, 0
Line.SMT_1185, 0.02211278, -23.04408, 0.02211278, -23.04408, 0, 0
Line.SMT_11853, 0.175727, -35.33922, 0.175727, -35.33922, 0, 0
Line.SMT_11856, 0.006527448, -26.93601, 0.006527448, -26.93601, 0, 0
Line.SMT_11860, 0.1035141, -41.26794, 0.1035141, -41.26794, 0, 0
Line.SMT_11865, 9.241009E-005, -1.013777, 9.241009E-005, -1.013777, 0, 0
Line.SMT_11866, 0.06440665, -25.69857, 0.06440665, -25.69857, 0, 0
Line.SMT_11870, 0.2210012, -34.33045, 0.2210012, -34.33045, 0, 0
Line.SMT_11871, -1.892352E-006, -2.846983, -1.892352E-006, -2.846983, 0, 0
Line.SMT_11872, 0.04659744, -2.665701, 0.04659744, -2.665701, 0, 0
Line.SMT_11873, 0.00579227, -16.96442, 0.00579227, -16.96442, 0, 0
Line.SMT_11879, 0.1559691, -31.32831, 0.1559691, -31.32831, 0, 0
Line.SMT_11892, 0.003517432, -25.06582, 0.003517432, -25.06582, 0, 0
Line.SMT_11897, 0.1855033, -42.56327, 0.1855033, -42.56327, 0, 0
Line.SMT_11898, 0.002172853, -69.01406, 0.002172853, -69.01406, 0, 0
Line.SMT_11904, 0.09610046, -38.47992, 0.09610046, -38.47992, 0, 0
Line.SMT_11910, 0.7406653, -62.87242, 0.7406653, -62.87242, 0, 0
Line.SMT_11911, 5.005185, -20.89735, 5.005185, -20.89735, 0, 0
Line.SMT_11912, 5.9009E-005, -48.37069, 5.9009E-005, -48.37069, 0, 0
Line.SMT_11919, 14.91099, -56.44313, 14.91099, -56.44313, 0, 0
Line.SMT_11922, 0.01694535, -31.7849, 0.01694535, -31.7849, 0, 0
Line.SMT_11924, 0.1537301, -53.09433, 0.1537301, -53.09433, 0, 0
Line.SMT_11925, 0.01341709, -25.13263, 0.01341709, -25.13263, 0, 0
...
Transformer.REG_18_9715A, 9034.133, 1040.143, 4239.466, 1040.143, 4794.667, 0
Transformer.REG_18_9715B, 8510.551, 898.2718, 3659.644, 898.2718, 4850.906, 0
Transformer.REG_18_9715C, 8806.92, 969.8563, 3952.167, 969.8563, 4854.753, 0
Transformer.REG_23_1A, 5347.472, 3.895416, 4.089351, 3.895416, 5343.382, 0
Transformer.REG_23_1B, 5309.736, 3.715504, 3.362513, 3.715504, 5306.374, 4.547474E-013
Transformer.REG_23_1C, 5314.345, 3.700023, 3.36269, 3.700023, 5310.983, 0
Transformer.REG_23_9701A, 12207.27, 741.6081, 5175.861, 741.6081, 7031.412, 0
Transformer.REG_23_9701B, 11861.22, 688.6457, 4805.168, 688.6457, 7056.05, -4.547474E-013
Transformer.REG_23_9701C, 11955.29, 701.0168, 4891.748, 701.0168, 7063.546, 0
Transformer.REG_23_9708A, 6240.439, 220.3155, 888.4648, 220.3155, 5351.974, -2.842171E-014
Transformer.REG_23_9708B, 6265.824, 237.5905, 959.0859, 237.5905, 5306.738, 0
Transformer.REG_23_9708C, 6218.763, 224.384, 905.176, 224.384, 5313.587, 0
Transformer.TRF_15_1106A, 34.42537, 2.026358, 0.606453, 2.026358, 33.81892, 2.133836E-015
Line.RESIST_MTR_TRF_15_1106A, 0.01217437, -0.2218199, 0.01217437, -0.2218199, 0, 0
Reactor.TRF_15_1106A_R, 5.73977E-012, -4.038968E-028, 5.73977E-012, -4.038968E-028, 0, 0
Transformer.TRF_15_1107A, 48.77727, 1.083144, 0.2963219, 1.083144, 48.48095, 3.083417E-015
Line.RESIST_MTR_TRF_15_1107A, 0.01281266, -0.2218093, 0.01281266, -0.2218093, 0, 0
Reactor.TRF_15_1107A_R, 9.594926E-009, 0, 9.594926E-009, 0, 0, 0
Transformer.TRF_15_1108A, 48.73311, 0.8517651, 0.2318651, 0.8517651, 48.50124, 2.645711E-015
Line.RESIST_MTR_TRF_15_1108A, 0.01002541, -0.2218096, 0.01002541, -0.2218096, 0, 0
Reactor.TRF_15_1108A_R, 1.147078E-008, 8.271806E-025, 1.147078E-008, 8.271806E-025, 0, 0
Transformer.TRF_15_1391A, 48.19564, 0.03614512, 0.004698618, 0.03614512, 48.19094, -4.988279E-016
Line.RESIST_MTR_TRF_15_1391A, 0.0002032012, -0.2197832, 0.0002032012, -0.2197832, 0, 0
Reactor.TRF_15_1391A_R, 1.687842E-008, 0, 1.687842E-008, 0, 0, 0
Transformer.TRF_15_1418A, 103.2244, 189.1903, 17.91359, 189.1903, 85.31076, 3.000475E-015
Line.RESIST_MTR_TRF_15_1418A, 3.671659, -0.2199239, 3.671659, -0.2199239, 0, 0
Reactor.TRF_15_1418A_R, 4.40421E-008, 0, 4.40421E-008, 0, 0, 0
Transformer.TRF_15_1682A, 88.21091, 10.09448, 1.004346, 10.09448, 87.20656, 8.07118E-015
Line.RESIST_MTR_TRF_15_1682A, 0.2033604, -0.2217907, 0.2033604, -0.2217907, 0, 0
Reactor.TRF_15_1682A_R, 4.647118E-008, 0, 4.647118E-008, 0, 0, 0
Transformer.TRF_15_1828A, 48.77227, 2.123732, 0.2777211, 2.123732, 48.49455, -9.805118E-016
Line.RESIST_MTR_TRF_15_1828A, 0.01786245, -0.2218072, 0.01786245, -0.2218072, 0, 0
Reactor.TRF_15_1828A_R, 7.466848E-009, 0, 7.466848E-009, 0, 0, 0
Transformer.TRF_15_1844A, 48.90635, 1.712773, 0.471721, 1.712773, 48.43463, -2.595282E-015
Line.RESIST_MTR_TRF_15_1844A, 0.02039742, -0.2218067, 0.02039742, -0.2218067, 0, 0
Reactor.TRF_15_1844A_R, 1.009886E-008, 0, 1.009886E-008, 0, 0, 0
Transformer.TRF_15_1927A, 212.643, 20.27567, 5.39718, 20.27567, 207.2458, 4.444429E-015
Reactor.TRF_15_1927A_R, 1.341169E-009, 0, 1.341169E-009, 0, 0, 0
Transformer.TRF_15_2257A, 48.6435, 0.03648097, 0.004742279, 0.03648097, 48.63876, -3.800129E-017
Line.RESIST_MTR_TRF_15_2257A, 0.0002050885, -0.2218257, 0.0002050885, -0.2218257, 0, 0
Reactor.TRF_15_2257A_R, 9.15165E-009, 8.271806E-025, 9.15165E-009, 8.271806E-025, 0, 0
Transformer.TRF_15_2636A, 48.95333, 1.91505, 0.5280699, 1.91505, 48.42526, 7.472592E-016
Line.RESIST_MTR_TRF_15_2636A, 0.02283413, -0.2218226, 0.02283413, -0.2218226, 0, 0
Reactor.TRF_15_2636A_R, 9.125831E-009, 0, 9.125831E-009, 0, 0, 0
Transformer.TRF_15_3040A, 164.8668, 39.30238, 11.7835, 39.30238, 153.0833, 3.009044E-015
Reactor.TRF_15_3040A_R, 9.928426E-010, 5.169879E-026, 9.928426E-010, 5.169879E-026, 0, 0
Transformer.TRF_15_3260A, 86.75395, 1.012367, 0.04740282, 1.012367, 86.70654, -2.696736E-015
Line.RESIST_MTR_TRF_15_3260A, 0.01056594, -0.2197772, 0.01056594, -0.2197772, 0, 0
Reactor.TRF_15_3260A_R, 4.166981E-008, 3.308722E-024, 4.166981E-008, 3.308722E-024, 0, 0
Transformer.TRF_15_3285A, 159.7213, 19.26439, 5.77208, 19.26439, 153.9492, -1.578593E-015
Reactor.TRF_15_3285A_R, 1.005419E-008, 4.135903E-025, 1.005419E-008, 4.135903E-025, 0, 0
Transformer.TRF_15_3728A, 34.04716, 0.02154454, 0.005004197, 0.02154454, 34.04215, 1.863977E-015
Line.RESIST_MTR_TRF_15_3728A, 0.0001004795, -0.221815, 0.0001004795, -0.221815, 0, 0
Reactor.TRF_15_3728A_R, 1.883974E-009, 0, 1.883974E-009, 0, 0, 0
Transformer.TRF_15_4078A, 208.4355, 0.1060583, 0.01858767, 0.1060583, 208.4169, 5.329071E-015
Reactor.TRF_15_4078A_R, 1.744598E-025, 1.147944E-041, 1.744598E-025, 1.147944E-041, 0, 0
Transformer.TRF_15_4154A, 88.18003, 4.847996, 0.9902011, 4.847996, 87.18983, -1.138738E-015
Line.RESIST_MTR_TRF_15_4154A, 0.1531624, -0.2217934, 0.1531624, -0.2217934, 0, 0
Reactor.TRF_15_4154A_R, 4.823794E-008, 3.308722E-024, 4.823794E-008, 3.308722E-024, 0, 0
Transformer.TRF_15_4258A, 412.4431, 0.2000414, 0.02298958, 0.2000414, 412.4201, 1.421085E-014
Reactor.TRF_15_4258A_R, 3.425602E-025, -2.295887E-041, 3.425602E-025, -2.295887E-041, 0, 0
Transformer.TRF_15_5027A, 702.231, 0.3399959, 0.02896191, 0.3399959, 702.202, -1.065814E-014
Reactor.TRF_15_5027A_R, 6.667383E-024, -3.67342E-040, 6.667383E-024, -3.67342E-040, 0, 0
Transformer.TRF_15_5184A, 48.63804, 0.04519493, 0.007170321, 0.04519493, 48.63087, 1.06779E-015
Line.RESIST_MTR_TRF_15_5184A, 0.0003100127, -0.2218145, 0.0003100127, -0.2218145, 0, 0
Reactor.TRF_15_5184A_R, 8.224687E-009, 0, 8.224687E-009, 0, 0, 0
Transformer.TRF_15_6237A, 48.62096, 0.03646406, 0.004740082, 0.03646406, 48.61622, 1.983548E-016
Line.RESIST_MTR_TRF_15_6237A, 0.0002049934, -0.2217229, 0.0002049934, -0.2217229, 0, 0
Reactor.TRF_15_6237A_R, 6.711893E-009, 0, 6.711893E-009, 0, 0, 0
Transformer.TRF_15_6453A, 702.2529, 0.3400065, 0.02896282, 0.3400065, 702.224, -1.953993E-014
Reactor.TRF_15_6453A_R, 6.67977E-024, -3.67342E-040, 6.67977E-024, -3.67342E-040, 0, 0
Transformer.TRF_15_803A, 97.59419, 5.970847, 0.824435, 5.970847, 96.76975, 3.234717E-016
Reactor.TRF_15_803A_R, 2.977354E-008, -4.135903E-025, 2.977354E-008, -4.135903E-025, 0, 0
Transformer.TRF_15_804A, 97.43689, 4.795408, 0.669717, 4.795408, 96.76717, 1.298386E-015
Reactor.TRF_15_804A_R, 2.978087E-008, 0, 2.978087E-008, 0, 0, 0
Transformer.TRF_15_806A, 72.82286, 0.2232546, 0.03615136, 0.2232546, 72.78671, 1.990053E-016
Reactor.TRF_15_806A_R, 1.691189E-008, 2.067952E-025, 1.691189E-008, 2.067952E-025, 0, 0
Transformer.TRF_17_1065A, 205.1316, 17.47034, 4.649408, 17.47034, 200.4822, 5.053655E-015
Reactor.TRF_17_1065A_R, 6.588122E-011, 0, 6.588122E-011, 0, 0, 0
Transformer.TRF_17_1456A, 67.39655, 24.12185, 4.260418, 24.12185, 63.13614, 2.922467E-016
Line.RESIST_MTR_TRF_17_1456A, 0.4028253, -0.2238817, 0.4028253, -0.2238817, 0, 0
Reactor.TRF_17_1456A_R, 5.879633E-008, 0, 5.879633E-008, 0, 0, 0
Transformer.TRF_17_1582A, 40.2083, 33.66752, 2.583816, 33.66752, 37.62449, 3.106239E-017
Reactor.TRF_17_1582A_R, 8.825957E-008, 0, 8.825957E-008, 0, 0, 0
Transformer.TRF_17_1608A, 226.2282, 99.35138, 26.48436, 99.35138, 199.7438, 3.513821E-015
Reactor.TRF_17_1608A_R, 3.426408E-010, 1.29247E-026, 3.426408E-010, 1.29247E-026, 0, 0
Transformer.TRF_17_1709A, 47.48528, 3.834048, 0.4862151, 3.834048, 46.99906, 7.695125E-017
Line.RESIST_MTR_TRF_17_1709A, 0.03155411, -0.2152032, 0.03155411, -0.2152032, 0, 0
Reactor.TRF_17_1709A_R, 7.219732E-009, 2.584939E-026, 7.219732E-009, 2.584939E-026, 0, 0
Transformer.TRF_17_1754A, 34.97956, 21.50382, 2.776675, 21.50382, 32.20289, -4.99309E-017
Line.RESIST_MTR_TRF_17_1754A, 0.08507914, -0.2128394, 0.08507914, -0.2128394, 0, 0
Reactor.TRF_17_1754A_R, 1.734772E-009, 0, 1.734772E-009, 0, 0, 0
Transformer.TRF_17_2080A, 70.2253, 74.5957, 8.535773, 74.5957, 61.68953, 9.360595E-016
Line.RESIST_MTR_TRF_17_2080A, 0.9169169, -0.2196715, 0.9169169, -0.2196715, 0, 0
Reactor.TRF_17_2080A_R, 1.146812E-008, 0, 1.146812E-008, 0, 0, 0
Transformer.TRF_17_2107A, 66.47075, 22.62035, 3.228682, 22.62035, 63.24207, -4.953015E-015
Line.RESIST_MTR_TRF_17_2107A, 0.3271771, -0.2238979, 0.3271771, -0.2238979, 0, 0
Reactor.TRF_17_2107A_R, 6.329271E-008, 0, 6.329271E-008, 0, 0, 0
Transformer.TRF_17_2127A, 92.24539, 1.07987, 0.3813458, 1.07987, 91.86404, -3.774758E-015
Reactor.TRF_17_2127A_R, 2.584193E-021, 0, 2.584193E-021, 0, 0, 0
Transformer.TRF_17_2137A, 60.85597, 3.32552, 0.6599681, 3.32552, 60.196, -1.578598E-016
Line.RESIST_MTR_TRF_17_2137A, 0.0592988, -0.2120416, 0.0592988, -0.2120416, 0, 0
Reactor.TRF_17_2137A_R, 5.030553E-008, 0, 5.030553E-008, 0, 0, 0
Transformer.TRF_17_23A, 161.8567, 25.71074, 7.705967, 25.71074, 154.1507, -2.430345E-015
Reactor.TRF_17_23A_R, 1.817194E-009, 0, 1.817194E-009, 0, 0, 0
Transformer.TRF_17_2397A, 208.2481, 28.68908, 7.64106, 28.68908, 200.6071, 1.704209E-016
Reactor.TRF_17_2397A_R, 1.72031E-008, 0, 1.72031E-008, 0, 0, 0
Transformer.TRF_17_24A, 222.8616, 56.252, 14.99082, 56.252, 207.8707, -2.572414E-015
Reactor.TRF_17_24A_R, 6.959178E-008, 0, 6.959178E-008, 0, 0, 0
Transformer.TRF_17_240A, 213.6494, 10.61579, 2.821059, 10.61579, 210.8284, 4.396101E-015
Reactor.TRF_17_240A_R, 1.572158E-009, 0, 1.572158E-009, 0, 0, 0
Transformer.TRF_17_2424A, 48.08608, 14.58717, 0.9834011, 14.58717, 47.10268, -2.999987E-016
Line.RESIST_MTR_TRF_17_2424A, 0.07160036, -0.2159353, 0.07160036, -0.2159353, 0, 0
Reactor.TRF_17_2424A_R, 1.397022E-007, 6.617445E-024, 1.397022E-007, 6.617445E-024, 0, 0
Transformer.TRF_17_25A, 42.74165, 22.28456, 3.658075, 22.28456, 39.08357, 1.848673E-015
Reactor.TRF_17_25A_R, 3.087268E-008, 0, 3.087268E-008, 0, 0, 0
Transformer.TRF_17_2500A, 60.95969, 2.023356, 0.5036014, 2.023356, 60.45609, -7.369864E-017
Line.RESIST_MTR_TRF_17_2500A, 0.03605377, -0.2128453, 0.03605377, -0.2128453, 0, 0
Reactor.TRF_17_2500A_R, 2.016238E-008, 1.033976E-025, 2.016238E-008, 1.033976E-025, 0, 0
Transformer.TRF_17_2640A, 47.19769, 15.89157, 0.9341053, 15.89157, 46.26358, -2.572161E-015
Line.RESIST_MTR_TRF_17_2640A, 0.06877232, -0.2120203, 0.06877232, -0.2120203, 0, 0
Reactor.TRF_17_2640A_R, 4.960141E-008, 0, 4.960141E-008, 0, 0, 0
Transformer.TRF_17_3247A, 116.152, 74.91697, 26.75181, 74.91697, 89.40019, 2.907688E-015
Reactor.TRF_17_3247A_R, 4.767745E-009, 4.135903E-025, 4.767745E-009, 4.135903E-025, 0, 0
Transformer.TRF_17_3280A, 32.68703, 0.3210054, 0.09350435, 0.3210054, 32.59353, 1.780802E-017
Line.RESIST_MTR_TRF_17_3280A, 0.001876634, -0.2128542, 0.001876634, -0.2128542, 0, 0
Reactor.TRF_17_3280A_R, 2.778206E-009, 0, 2.778206E-009, 0, 0, 0
Transformer.TRF_17_3496A, 211.7965, 3.607081, 0.9520715, 3.607081, 210.8445, 1.423473E-015
Reactor.TRF_17_3496A_R, 7.422205E-010, -5.169879E-026, 7.422205E-010, -5.169879E-026, 0, 0
Transformer.TRF_17_3600A, 88.68016, 5.411054, 0.5500175, 5.411054, 88.13015, -3.861332E-015
Line.RESIST_MTR_TRF_17_3600A, 0.1106945, -0.2238982, 0.1106945, -0.2238982, 0, 0
Reactor.TRF_17_3600A_R, 4.708889E-008, 0, 4.708889E-008, 0, 0, 0
Transformer.TRF_17_3717A, 46.78497, 4.411399, 0.474106, 4.411399, 46.31087, 1.026075E-015
Line.RESIST_MTR_TRF_17_3717A, 0.03196067, -0.2120241, 0.03196067, -0.2120241, 0, 0
Reactor.TRF_17_3717A_R, 1.094353E-008, 0, 1.094353E-008, 0, 0, 0
Transformer.TRF_17_3779A, 208.7353, 14.3759, 3.824027, 14.3759, 204.9112, 8.979818E-015
Reactor.TRF_17_3779A_R, 1.843174E-009, -1.033976E-025, 1.843174E-009, -1.033976E-025, 0, 0
Transformer.TRF_17_3783A, 234.4172, 109.3339, 29.1461, 109.3339, 205.2711, -2.081905E-015
Reactor.TRF_17_3783A_R, 5.814033E-010, -2.584939E-026, 5.814033E-010, -2.584939E-026, 0, 0
Transformer.TRF_17_3880A, 48.2403, 2.7703, 0.3615818, 2.7703, 47.87872, 2.329693E-015
Line.RESIST_MTR_TRF_17_3880A, 0.02328275, -0.2190947, 0.02328275, -0.2190947, 0, 0
Reactor.TRF_17_3880A_R, 1.03289E-008, -8.271806E-025, 1.03289E-008, -8.271806E-025, 0, 0
Transformer.TRF_17_39A, 48.80312, 3.762134, 0.9088175, 3.762134, 47.8943, -4.531748E-015
Line.RESIST_MTR_TRF_17_39A, 0.04693826, -0.2197157, 0.04693826, -0.2197157, 0, 0
Reactor.TRF_17_39A_R, 1.095253E-007, 6.617445E-024, 1.095253E-007, 6.617445E-024, 0, 0
Transformer.TRF_17_3930A, 49.23549, 0.03692494, 0.004799993, 0.03692494, 49.23069, -1.56548E-015
Line.RESIST_MTR_TRF_17_3930A, 0.0002075851, -0.2245253, 0.0002075851, -0.2245253, 0, 0
Reactor.TRF_17_3930A_R, 7.630204E-009, 0, 7.630204E-009, 0, 0, 0
Transformer.TRF_17_4037A, 34.04721, 3.008278, 0.9010567, 3.008278, 33.14615, 1.058723E-016
Line.RESIST_MTR_TRF_17_4037A, 0.01808912, -0.2177633, 0.01808912, -0.2177633, 0, 0
Reactor.TRF_17_4037A_R, 1.291111E-009, -3.231174E-027, 1.291111E-009, -3.231174E-027, 0, 0
Transformer.TRF_17_4075A, 164.2086, 34.58941, 10.36959, 34.58941, 153.839, -1.35487E-015
Reactor.TRF_17_4075A_R, 1.435002E-007, -6.617445E-024, 1.435002E-007, -6.617445E-024, 0, 0
Transformer.TRF_17_4128A, 212.5566, 10.44622, 2.775883, 10.44622, 209.7808, 1.554312E-015
Reactor.TRF_17_4128A_R, 8.12099E-020, 0, 8.12099E-020, 0, 0, 0
Transformer.TRF_17_4175A, 89.38853, 16.74103, 2.317838, 16.74103, 87.07069, -1.914267E-015
Line.RESIST_MTR_TRF_17_4175A, 0.4299161, -0.2219673, 0.4299161, -0.2219673, 0, 0
Reactor.TRF_17_4175A_R, 9.450258E-008, 0, 9.450258E-008, 0, 0, 0
Transformer.TRF_17_4179A, 65.0187, 51.3701, 2.744369, 51.3701, 62.27433, -2.1125E-015
Line.RESIST_MTR_TRF_17_4179A, 0.331154, -0.220016, 0.331154, -0.220016, 0, 0
Reactor.TRF_17_4179A_R, 1.171365E-008, 8.271806E-025, 1.171365E-008, 8.271806E-025, 0, 0
Transformer.TRF_17_4331A, 153.8817, 4.555192, 1.359396, 4.555192, 152.5223, -1.221245E-015
Reactor.TRF_17_4331A_R, 7.86379E-023, 0, 7.86379E-023, 0, 0, 0
Transformer.TRF_17_4479A, 64.82078, 12.00513, 1.373559, 12.00513, 63.44722, 1.458252E-017
Line.RESIST_MTR_TRF_17_4479A, 0.1474652, -0.2238526, 0.1474652, -0.2238526, 0, 0
Reactor.TRF_17_4479A_R, 3.386684E-008, 0, 3.386684E-008, 0, 0, 0
Transformer.TRF_17_4833A, 49.75251, 19.95401, 0.8462675, 19.95401, 48.90625, -3.036227E-015
Line.RESIST_MTR_TRF_17_4833A, 0.06164751, -0.2239029, 0.06164751, -0.2239029, 0, 0
Reactor.TRF_17_4833A_R, 3.180312E-009, 0, 3.180312E-009, 0, 0, 0
Transformer.TRF_17_5149A, 68.20406, 20.24531, 5.102136, 20.24531, 63.10192, -2.081072E-015
Line.RESIST_MTR_TRF_17_5149A, 0.36531, -0.2240396, 0.36531, -0.2240396, 0, 0
Reactor.TRF_17_5149A_R, 1.00248E-007, -6.617445E-024, 1.00248E-007, -6.617445E-024, 0, 0
Transformer.TRF_17_5289A, 62.69984, 1.573027, 0.2150322, 1.573027, 62.48481, -1.476683E-016
Line.RESIST_MTR_TRF_17_5289A, 0.02193935, -0.219662, 0.02193935, -0.219662, 0, 0
Reactor.TRF_17_5289A_R, 2.682914E-008, 0, 2.682914E-008, 0, 0, 0
Transformer.TRF_17_53A, 37.62062, 0.03840845, 0.003476025, 0.03840845, 37.61714, -7.223497E-016
Reactor.TRF_17_53A_R, 7.041527E-008, 0, 7.041527E-008, 0, 0, 0
Transformer.TRF_17_5301A, 63.45561, 31.12989, 1.200181, 31.12989, 62.25543, -7.61652E-018
Line.RESIST_MTR_TRF_17_5301A, 0.1421687, -0.2192344, 0.1421687, -0.2192344, 0, 0
Reactor.TRF_17_5301A_R, 1.211596E-008, 1.033976E-025, 1.211596E-008, 1.033976E-025, 0, 0
Transformer.TRF_17_5334A, 202.8176, 0.6644632, 0.1677606, 0.6644632, 202.6498, 3.108624E-015
Reactor.TRF_17_5334A_R, 3.514978E-022, -2.350989E-038, 3.514978E-022, -2.350989E-038, 0, 0
Transformer.TRF_17_54A, 71.50482, 9.491341, 0.9185511, 9.491341, 70.58626, -4.868447E-015
Reactor.TRF_17_54A_R, 4.783627E-008, 0, 4.783627E-008, 0, 0, 0
Transformer.TRF_17_5460A, 176.8123, 69.50919, 20.8454, 69.50919, 155.9669, -2.109424E-015
Reactor.TRF_17_5460A_R, 7.55112E-022, -4.701977E-038, 7.55112E-022, -4.701977E-038, 0, 0
Transformer.TRF_17_5587A, 151.4023, 3.920006, 1.168949, 3.920006, 150.2334, -3.552714E-015
Reactor.TRF_17_5587A_R, 1.115357E-021, 0, 1.115357E-021, 0, 0, 0
Transformer.TRF_17_5601A, 209.1063, 5.389552, 1.427541, 5.389552, 207.6787, 5.050193E-015
Reactor.TRF_17_5601A_R, 1.149014E-009, 0, 1.149014E-009, 0, 0, 0
Transformer.TRF_17_5645A, 49.11672, 0.3888134, 0.1028457, 0.3888134, 49.01387, 1.233537E-015
Line.RESIST_MTR_TRF_17_5645A, 0.004446503, -0.2239139, 0.004446503, -0.2239139, 0, 0
Reactor.TRF_17_5645A_R, 8.878941E-009, 0, 8.878941E-009, 0, 0, 0
Transformer.TRF_17_5777A, 47.39229, 0.5232815, 0.1405002, 0.5232815, 47.25179, -2.002386E-015
Line.RESIST_MTR_TRF_17_5777A, 0.006074721, -0.2159471, 0.006074721, -0.2159471, 0, 0
Reactor.TRF_17_5777A_R, 1.129434E-008, 8.271806E-025, 1.129434E-008, 8.271806E-025, 0, 0
Transformer.TRF_17_5865A, 207.718, 0.7582444, 0.1925417, 0.7582444, 207.5255, -4.218847E-015
Reactor.TRF_17_5865A_R, 2.626977E-021, 0, 2.626977E-021, 0, 0, 0
Transformer.TRF_17_5938A, 212.4594, 6.87107, 1.822475, 6.87107, 210.637, 2.168551E-015
Reactor.TRF_17_5938A_R, 1.026861E-009, 5.169879E-026, 1.026861E-009, 5.169879E-026, 0, 0
Transformer.TRF_17_5985A, 732.3726, 38.40627, 21.0348, 38.40627, 711.3378, 6.640672E-020
Reactor.TRF_17_5985A_R, 8.916313E-017, 0, 8.916313E-017, 0, 0, 0
Transformer.TRF_17_5986A, 711.2002, 21.32778, 11.66663, 21.32778, 699.5336, -1.199037E-014
Reactor.TRF_17_5986A_R, 6.247166E-017, 6.162976E-033, 6.247166E-017, 6.162976E-033, 0, 0
Transformer.TRF_17_5987A, 95.50835, 11.4675, 4.091222, 11.4675, 91.41713, -4.440598E-016
Reactor.TRF_17_5987A_R, 8.443231E-017, 1.540744E-033, 8.443231E-017, 1.540744E-033, 0, 0
Transformer.TRF_17_6046A, 62.0748, 3.482719, 0.8718253, 3.482719, 61.20297, 1.120333E-015
Line.RESIST_MTR_TRF_17_6046A, 0.06241942, -0.2157399, 0.06241942, -0.2157399, 0, 0
Reactor.TRF_17_6046A_R, 1.830354E-008, 0, 1.830354E-008, 0, 0, 0
Transformer.TRF_17_6112A, 49.34077, 4.51898, 1.103845, 4.51898, 48.23693, -5.230191E-016
Line.RESIST_MTR_TRF_17_6112A, 0.05664734, -0.2214267, 0.05664734, -0.2214267, 0, 0
Reactor.TRF_17_6112A_R, 3.617018E-008, 0, 3.617018E-008, 0, 0, 0
Transformer.TRF_17_6343A, 503.7061, 417.0403, 87.89, 417.0403, 415.8161, -6.713704E-015
Reactor.TRF_17_6343A_R, 3.341756E-009, 0, 3.341756E-009, 0, 0, 0
Transformer.TRF_17_6445A, 151.3862, 3.134938, 0.9334193, 3.134938, 150.4528, -2.220446E-016
Reactor.TRF_17_6445A_R, 7.112245E-023, 1.469368E-039, 7.112245E-023, 1.469368E-039, 0, 0
Transformer.TRF_17_798A, 47.38085, 1.990973, 0.2609533, 1.990973, 47.1199, -2.381613E-015
Line.RESIST_MTR_TRF_17_798A, 0.01677286, -0.2155034, 0.01677286, -0.2155034, 0, 0
Reactor.TRF_17_798A_R, 1.253862E-007, 0, 1.253862E-007, 0, 0, 0
Transformer.TRF_18_1002A, 64.4876, 7.534416, 1.126712, 7.534416, 63.36089, 1.487796E-016
Line.RESIST_MTR_TRF_18_1002A, 0.1125123, -0.2234528, 0.1125123, -0.2234528, 0, 0
Reactor.TRF_18_1002A_R, 1.533635E-008, 0, 1.533635E-008, 0, 0, 0
Transformer.TRF_18_1003A, 51.53287, 13.44528, 3.059038, 13.44528, 48.47383, -3.993252E-016
Line.RESIST_MTR_TRF_18_1003A, 0.1636351, -0.2235288, 0.1636351, -0.2235288, 0, 0
Reactor.TRF_18_1003A_R, 1.918752E-008, -1.654361E-024, 1.918752E-008, -1.654361E-024, 0, 0
Transformer.TRF_18_1004A, 63.7291, 1.171282, 0.06641219, 1.171282, 63.66268, -3.104342E-015
Line.RESIST_MTR_TRF_18_1004A, 0.007943642, -0.2235129, 0.007943642, -0.2235129, 0, 0
Reactor.TRF_18_1004A_R, 3.603687E-008, 0, 3.603687E-008, 0, 0, 0
Transformer.TRF_18_1005A, 49.02373, 0.3694665, 0.09746608, 0.3694665, 48.92627, 6.627511E-015
Line.RESIST_MTR_TRF_18_1005A, 0.004213764, -0.2235007, 0.004213764, -0.2235007, 0, 0
Reactor.TRF_18_1005A_R, 2.242928E-007, 0, 2.242928E-007, 0, 0, 0
Transformer.TRF_18_1007A, 64.47499, 6.386083, 1.110691, 6.386083, 63.3643, 2.960685E-015
Line.RESIST_MTR_TRF_18_1007A, 0.1054722, -0.2234706, 0.1054722, -0.2234706, 0, 0
Reactor.TRF_18_1007A_R, 7.641188E-008, 0, 7.641188E-008, 0, 0, 0
Transformer.TRF_18_1008A, 88.79139, 19.90652, 0.8399581, 19.90652, 87.95143, -6.065135E-015
Line.RESIST_MTR_TRF_18_1008A, 0.188096, -0.2234451, 0.188096, -0.2234451, 0, 0
Reactor.TRF_18_1008A_R, 1.224991E-008, 8.271806E-025, 1.224991E-008, 8.271806E-025, 0, 0
Transformer.TRF_18_1009A, 88.46964, 3.821972, 0.5148335, 3.821972, 87.95481, -4.4925E-015
Line.RESIST_MTR_TRF_18_1009A, 0.09599082, -0.2234483, 0.09599082, -0.2234483, 0, 0
Reactor.TRF_18_1009A_R, 2.351867E-007, 0, 2.351867E-007, 0, 0, 0
Transformer.TRF_18_1011A, 88.2329, 2.330322, 0.1356321, 2.330322, 88.09726, 5.768389E-015
Line.RESIST_MTR_TRF_18_1011A, 0.02995189, -0.2234382, 0.02995189, -0.2234382, 0, 0
Reactor.TRF_18_1011A_R, 2.990309E-007, 2.646978E-023, 2.990309E-007, 2.646978E-023, 0, 0
Transformer.TRF_18_1050A, 87.10586, 1.362943, 0.2901542, 1.362943, 86.81571, 1.217017E-015
Line.RESIST_MTR_TRF_18_1050A, 0.04121663, -0.2204023, 0.04121663, -0.2204023, 0, 0
Reactor.TRF_18_1050A_R, 1.115689E-007, 0, 1.115689E-007, 0, 0, 0
Transformer.TRF_18_1091A, 46.76547, 5.763628, 0.7178534, 5.763628, 46.04761, -5.847644E-015
Line.RESIST_MTR_TRF_18_1091A, 0.04681311, -0.2110459, 0.04681311, -0.2110459, 0, 0
Reactor.TRF_18_1091A_R, 7.727917E-008, -6.617445E-024, 7.727917E-008, -6.617445E-024, 0, 0
Transformer.TRF_18_1104A, 61.46761, 14.50664, 1.325378, 14.50664, 60.14223, 4.857876E-015
Line.RESIST_MTR_TRF_18_1104A, 0.1493893, -0.212149, 0.1493893, -0.212149, 0, 0
Reactor.TRF_18_1104A_R, 2.877991E-008, -1.654361E-024, 2.877991E-008, -1.654361E-024, 0, 0
Transformer.TRF_18_1105A, 60.46386, 0.08324912, 0.01283864, 0.08324912, 60.45102, 6.194264E-015
Line.RESIST_MTR_TRF_18_1105A, 0.001054361, -0.2121218, 0.001054361, -0.2121218, 0, 0
Reactor.TRF_18_1105A_R, 1.278832E-007, 0, 1.278832E-007, 0, 0, 0
Transformer.TRF_18_1109A, 82.55266, 3.17115, 0.6178907, 3.17115, 81.93477, 4.709774E-016
Line.RESIST_MTR_TRF_18_1109A, 0.09859496, -0.2082444, 0.09859496, -0.2082444, 0, 0
Reactor.TRF_18_1109A_R, 1.280219E-007, -6.617445E-024, 1.280219E-007, -6.617445E-024, 0, 0
Transformer.TRF_18_1156A, 49.51883, 0.9339655, 0.2546783, 0.9339655, 49.26415, -1.881091E-017
Line.RESIST_MTR_TRF_18_1156A, 0.01101173, -0.225328, 0.01101173, -0.225328, 0, 0
Reactor.TRF_18_1156A_R, 3.528739E-008, 0, 3.528739E-008, 0, 0, 0
Transformer.TRF_18_1162A, 90.48093, 0.5821492, 0.2036645, 0.5821492, 90.27726, 1.396499E-025
Reactor.TRF_18_1162A_R, 2.971207E-022, 0, 2.971207E-022, 0, 0, 0
Transformer.TRF_18_1164A, 883.0339, 362.9655, 199.0798, 362.9655, 683.9542, 2.018913E-014
Reactor.TRF_18_1164A_R, 4.604603E-009, 0, 4.604603E-009, 0, 0, 0
Transformer.TRF_18_1166A, 61.96978, 1.614252, 0.07746084, 1.614252, 61.89232, -3.397239E-015
Line.RESIST_MTR_TRF_18_1166A, 0.009326862, -0.2173029, 0.009326862, -0.2173029, 0, 0
Reactor.TRF_18_1166A_R, 9.798996E-011, 0, 9.798996E-011, 0, 0, 0
Transformer.TRF_18_1167A, 85.85497, 2.359736, 0.2293778, 2.359736, 85.62559, -6.781847E-015
Line.RESIST_MTR_TRF_18_1167A, 0.04650018, -0.2173006, 0.04650018, -0.2173006, 0, 0
Reactor.TRF_18_1167A_R, 1.705163E-008, 0, 1.705163E-008, 0, 0, 0
Transformer.TRF_18_1168A, 63.17653, 9.66648, 1.652538, 9.66648, 61.52399, 2.175126E-015
Line.RESIST_MTR_TRF_18_1168A, 0.157999, -0.2172587, 0.157999, -0.2172587, 0, 0
Reactor.TRF_18_1168A_R, 4.272062E-008, 0, 4.272062E-008, 0, 0, 0
Transformer.TRF_18_1205A, 49.00945, 33.12865, 1.610179, 33.12865, 47.39927, -3.807156E-015
Line.RESIST_MTR_TRF_18_1205A, 0.118804, -0.2174642, 0.118804, -0.2174642, 0, 0
Reactor.TRF_18_1205A_R, 3.006105E-009, 0, 3.006105E-009, 0, 0, 0
Transformer.TRF_18_1206A, 49.64295, 14.85732, 2.419038, 14.85732, 47.22391, -8.698554E-016
Line.RESIST_MTR_TRF_18_1206A, 0.1468354, -0.2174533, 0.1468354, -0.2174533, 0, 0
Reactor.TRF_18_1206A_R, 4.385332E-008, 0, 4.385332E-008, 0, 0, 0
Transformer.TRF_18_1232A, 84.05812, 3.148846, 0.6105503, 3.148846, 83.44757, -2.450297E-017
Line.RESIST_MTR_TRF_18_1232A, 0.09770779, -0.2120815, 0.09770779, -0.2120815, 0, 0
Reactor.TRF_18_1232A_R, 1.941945E-007, 0, 1.941945E-007, 0, 0, 0
Transformer.TRF_18_1245A, 89.63521, 0.8178741, 0.1711838, 0.8178741, 89.46403, -8.912142E-017
Line.RESIST_MTR_TRF_18_1245A, 0.02313199, -0.2269992, 0.02313199, -0.2269992, 0, 0
Reactor.TRF_18_1245A_R, 4.817961E-007, 0, 4.817961E-007, 0, 0, 0
Transformer.TRF_18_1263A, 233.686, 104.8364, 27.94674, 104.8364, 205.7392, -5.347767E-015
Reactor.TRF_18_1263A_R, 1.091557E-007, 0, 1.091557E-007, 0, 0, 0
Transformer.TRF_18_1289A, 832.4013, 267.7567, 146.8509, 267.7567, 685.5503, 1.154301E-014
Reactor.TRF_18_1289A_R, 2.053362E-008, 0, 2.053362E-008, 0, 0, 0
Transformer.TRF_18_1290A, 215.8089, 226.2937, 67.88109, 226.2937, 147.9278, -9.711768E-016
Reactor.TRF_18_1290A_R, 7.732485E-008, 0, 7.732485E-008, 0, 0, 0
Transformer.TRF_18_1336A, 50.27509, 5.995837, 0.7581494, 5.995837, 49.51694, 8.210121E-017
Line.RESIST_MTR_TRF_18_1336A, 0.04925854, -0.2269601, 0.04925854, -0.2269601, 0, 0
Reactor.TRF_18_1336A_R, 3.657042E-008, 0, 3.657042E-008, 0, 0, 0
Transformer.TRF_18_1337A, 54.01416, 40.59433, 4.924603, 40.59433, 49.08955, 4.273383E-016
Line.RESIST_MTR_TRF_18_1337A, 0.3234737, -0.2269158, 0.3234737, -0.2269158, 0, 0
Reactor.TRF_18_1337A_R, 2.583895E-008, 0, 2.583895E-008, 0, 0, 0
Transformer.TRF_18_1398A, 94.2855, 7.345631, 2.61912, 7.345631, 91.66638, 2.616169E-015
Reactor.TRF_18_1398A_R, 1.910979E-008, 0, 1.910979E-008, 0, 0, 0
Transformer.TRF_18_1425A, 51.32122, 13.44738, 2.844787, 13.44738, 48.47643, 6.529445E-015
Line.RESIST_MTR_TRF_18_1425A, 0.1573595, -0.2234374, 0.1573595, -0.2234374, 0, 0
Reactor.TRF_18_1425A_R, 6.258186E-008, 0, 6.258186E-008, 0, 0, 0
Transformer.TRF_18_1450A, 89.65154, 1.851196, 0.1976629, 1.851196, 89.45388, 9.069351E-016
Line.RESIST_MTR_TRF_18_1450A, 0.03912098, -0.2269838, 0.03912098, -0.2269838, 0, 0
Reactor.TRF_18_1450A_R, 4.794381E-008, 0, 4.794381E-008, 0, 0, 0
Transformer.TRF_18_1505A, 85.56913, 1.357009, 0.2818609, 1.357009, 85.28727, 5.82325E-016
Line.RESIST_MTR_TRF_18_1505A, 0.04177949, -0.2165185, 0.04177949, -0.2165185, 0, 0
Reactor.TRF_18_1505A_R, 4.475318E-008, 0, 4.475318E-008, 0, 0, 0
Transformer.TRF_18_1518A, 96.8686, 19.2117, 6.85707, 19.2117, 90.01153, -4.833061E-016
Reactor.TRF_18_1518A_R, 8.702068E-011, 0, 8.702068E-011, 0, 0, 0
Transformer.TRF_18_1601A, 457.1857, 236.0382, 49.73635, 236.0382, 407.4493, 5.409571E-015
Reactor.TRF_18_1601A_R, 1.172961E-007, -6.617445E-024, 1.172961E-007, -6.617445E-024, 0, 0
Transformer.TRF_18_1602A, 600.2501, 935.2495, 197.1258, 935.2495, 403.1244, -1.192528E-014
Reactor.TRF_18_1602A_R, 1.120359E-008, 0, 1.120359E-008, 0, 0, 0
Transformer.TRF_18_1603A, 92.19555, 57.01927, 11.20324, 57.01927, 80.99231, -2.102376E-015
Line.RESIST_MTR_TRF_18_1603A, 1.794035, -0.2082, 1.794035, -0.2082, 0, 0
Reactor.TRF_18_1603A_R, 9.285101E-008, 0, 9.285101E-008, 0, 0, 0
Transformer.TRF_18_1620A, 50.14745, 10.93973, 3.042217, 10.93973, 47.10524, 2.293914E-015
Line.RESIST_MTR_TRF_18_1620A, 0.1315582, -0.2172515, 0.1315582, -0.2172515, 0, 0
Reactor.TRF_18_1620A_R, 1.055241E-008, 0, 1.055241E-008, 0, 0, 0
Transformer.TRF_18_1633A, 216.4597, 35.76602, 9.527946, 35.76602, 206.9317, -1.501585E-016
Reactor.TRF_18_1633A_R, 2.940501E-014, -1.577722E-030, 2.940501E-014, -1.577722E-030, 0, 0
Transformer.TRF_18_1634A, 494.1914, 459.5019, 96.84149, 459.5019, 397.3499, -3.561011E-015
Reactor.TRF_18_1634A_R, 8.10214E-008, 0, 8.10214E-008, 0, 0, 0
Transformer.TRF_18_1659A, 91.67464, 45.24039, 5.05339, 45.24039, 86.62125, -1.170505E-015
Line.RESIST_MTR_TRF_18_1659A, 0.9961968, -0.2214714, 0.9961968, -0.2214714, 0, 0
Reactor.TRF_18_1659A_R, 5.378636E-008, -3.308722E-024, 5.378636E-008, -3.308722E-024, 0, 0
Transformer.TRF_18_1684A, 92.86062, 4.510065, 1.606438, 4.510065, 91.25418, -2.664535E-015
Reactor.TRF_18_1684A_R, 4.266177E-021, -1.880791E-037, 4.266177E-021, -1.880791E-037, 0, 0
Transformer.TRF_18_1750A, 153.5219, 4.716337, 1.407759, 4.716337, 152.1142, -1.944951E-015
Reactor.TRF_18_1750A_R, 5.090149E-008, 1.654361E-024, 5.090149E-008, 1.654361E-024, 0, 0
Transformer.TRF_18_1752A, 92.34898, 0.663917, 0.2327805, 0.663917, 92.1162, -8.076156E-016
Reactor.TRF_18_1752A_R, 1.295705E-009, 0, 1.295705E-009, 0, 0, 0
Transformer.TRF_18_1755A, 160.3187, 31.03088, 9.302155, 31.03088, 151.0166, 2.475737E-015
Reactor.TRF_18_1755A_R, 1.445386E-008, 0, 1.445386E-008, 0, 0, 0
Transformer.TRF_18_1766A, 152.9068, 3.297832, 0.9822195, 3.297832, 151.9246, -4.685433E-015
Reactor.TRF_18_1766A_R, 2.853501E-009, 0, 2.853501E-009, 0, 0, 0
Transformer.TRF_18_1770A, 65.65062, 11.30623, 2.492497, 11.30623, 63.15812, 9.465085E-017
Line.RESIST_MTR_TRF_18_1770A, 0.2124998, -0.2233999, 0.2124998, -0.2233999, 0, 0
Reactor.TRF_18_1770A_R, 8.200248E-008, 6.617445E-024, 8.200248E-008, 6.617445E-024, 0, 0
Transformer.TRF_18_1771A, 63.73117, 0.5957587, 0.1429444, 0.5957587, 63.58823, 7.784572E-017
Line.RESIST_MTR_TRF_18_1771A, 0.01023317, -0.2234538, 0.01023317, -0.2234538, 0, 0
Reactor.TRF_18_1771A_R, 4.199311E-008, 0, 4.199311E-008, 0, 0, 0
Transformer.TRF_18_1772A, 88.41326, 1.152718, 0.2459648, 1.152718, 88.1673, -2.275903E-015
Line.RESIST_MTR_TRF_18_1772A, 0.03323794, -0.2237913, 0.03323794, -0.2237913, 0, 0
Reactor.TRF_18_1772A_R, 5.577781E-008, 0, 5.577781E-008, 0, 0, 0
Transformer.TRF_18_1776A, 47.64564, 0.2595827, 0.06700679, 0.2595827, 47.57864, -7.210758E-016
Line.RESIST_MTR_TRF_18_1776A, 0.002896911, -0.2172716, 0.002896911, -0.2172716, 0, 0
Reactor.TRF_18_1776A_R, 4.579444E-008, 3.308722E-024, 4.579444E-008, 3.308722E-024, 0, 0
Transformer.TRF_18_1777A, 47.99122, 3.122553, 0.5560813, 3.122553, 47.43514, 2.483745E-015
Line.RESIST_MTR_TRF_18_1777A, 0.03274857, -0.2172931, 0.03274857, -0.2172931, 0, 0
Reactor.TRF_18_1777A_R, 1.639594E-007, 0, 1.639594E-007, 0, 0, 0
Transformer.TRF_18_1778A, 47.65145, 0.03573697, 0.004645564, 0.03573697, 47.64681, 1.225121E-015
Line.RESIST_MTR_TRF_18_1778A, 0.0002009074, -0.2173017, 0.0002009074, -0.2173017, 0, 0
Reactor.TRF_18_1778A_R, 3.373132E-008, -3.308722E-024, 3.373132E-008, -3.308722E-024, 0, 0
Transformer.TRF_18_1779A, 65.39624, 55.212, 4.059826, 55.212, 61.33642, 2.349331E-016
Line.RESIST_MTR_TRF_18_1779A, 0.4749661, -0.2172354, 0.4749661, -0.2172354, 0, 0
Reactor.TRF_18_1779A_R, 4.789322E-009, 0, 4.789322E-009, 0, 0, 0
Transformer.TRF_18_1780A, 91.73038, 4.757014, 1.694692, 4.757014, 90.03569, 2.450216E-015
Reactor.TRF_18_1780A_R, 1.126067E-007, 0, 1.126067E-007, 0, 0, 0
Transformer.TRF_18_1781A, 61.9691, 1.84499, 0.4584629, 1.84499, 61.51064, -3.339614E-016
Line.RESIST_MTR_TRF_18_1781A, 0.03282331, -0.2165155, 0.03282331, -0.2165155, 0, 0
Reactor.TRF_18_1781A_R, 2.703147E-008, 0, 2.703147E-008, 0, 0, 0
Transformer.TRF_18_1783A, 64.34644, 4.654088, 0.9689502, 4.654088, 63.37749, 3.277109E-015
Line.RESIST_MTR_TRF_18_1783A, 0.08513664, -0.2234433, 0.08513664, -0.2234433, 0, 0
Reactor.TRF_18_1783A_R, 8.507788E-008, 6.617445E-024, 8.507788E-008, 6.617445E-024, 0, 0
Transformer.TRF_18_1784A, 60.21496, 2.129781, 0.1395631, 2.129781, 60.07539, -4.397632E-015
Line.RESIST_MTR_TRF_18_1784A, 0.0165228, -0.2110498, 0.0165228, -0.2110498, 0, 0
Reactor.TRF_18_1784A_R, 1.246275E-007, 0, 1.246275E-007, 0, 0, 0
Transformer.TRF_18_1785A, 60.9471, 2.790817, 0.6973157, 2.790817, 60.24979, -4.438534E-015
Line.RESIST_MTR_TRF_18_1785A, 0.04992481, -0.2122686, 0.04992481, -0.2122686, 0, 0
Reactor.TRF_18_1785A_R, 1.683338E-008, 8.271806E-025, 1.683338E-008, 8.271806E-025, 0, 0
Transformer.TRF_18_1788A, 151.9686, 25.91951, 7.769069, 25.91951, 144.1995, -3.247414E-015
Reactor.TRF_18_1788A_R, 1.059799E-007, 0, 1.059799E-007, 0, 0, 0
Transformer.TRF_18_180A, 41.6558, 30.72828, 2.20704, 30.72828, 39.44876, 6.856427E-016
Reactor.TRF_18_180A_R, 7.469192E-009, 0, 7.469192E-009, 0, 0, 0
Transformer.TRF_18_1800A, 50.40356, 21.45967, 3.165255, 21.45967, 47.23831, -2.110596E-015
Line.RESIST_MTR_TRF_18_1800A, 0.1977374, -0.2178171, 0.1977374, -0.2178171, 0, 0
Reactor.TRF_18_1800A_R, 3.853698E-009, 0, 3.853698E-009, 0, 0, 0
Transformer.TRF_18_1801A, 66.70099, 12.19713, 3.070878, 12.19713, 63.63011, -5.211435E-015
Line.RESIST_MTR_TRF_18_1801A, 0.2198708, -0.2252865, 0.2198708, -0.2252865, 0, 0
Reactor.TRF_18_1801A_R, 3.763732E-007, -2.646978E-023, 3.763732E-007, -2.646978E-023, 0, 0
Transformer.TRF_18_1803A, 60.47532, 0.3549154, 0.08253431, 0.3549154, 60.39279, -2.221639E-015
Line.RESIST_MTR_TRF_18_1803A, 0.005908213, -0.2121246, 0.005908213, -0.2121246, 0, 0
Reactor.TRF_18_1803A_R, 2.38484E-008, 0, 2.38484E-008, 0, 0, 0
Transformer.TRF_18_1805A, 46.56397, 0.8513564, 0.1849766, 0.8513564, 46.379, -5.223686E-016
...